/*--------------------------------*- C++ -*----------------------------------*\
| =========                 |                                                 |
| \\      /  F ield         | OpenFOAM: The Open Source CFD Toolbox           |
|  \\    /   O peration     | Version:  v2406                                 |
|   \\  /    A nd           | Website:  www.openfoam.com                      |
|    \\/     M anipulation  |                                                 |
\*---------------------------------------------------------------------------*/
FoamFile
{
    version     2.0;
    format      ascii;
    class       dictionary;
    object      fvSchemes;
}
// * * * * * * * * * * * * * * * * * * * * * * * * * * * * * * * * * * * * * //

fluxScheme          Kurganov;

ddtSchemes
{
    default         Euler;
}

gradSchemes
{
    default         Gauss linear;
	// grad(U) 		cellMDLimited 1;
	// grad(p)			cellMDLimited 1;
}

divSchemes
{
    default         none;

    div(tauMC)      Gauss linear;
}

laplacianSchemes
{
    default         Gauss linear corrected;
}

interpolationSchemes
{
    default         linear;
	// default 		vanLeer;

    reconstruct(rho) vanLeer;
    reconstruct(U)  vanLeerV;
    reconstruct(T)  vanLeer;
	reconstruct(lambda) vanLeer;
}

snGradSchemes
{
    default         corrected;
}


// ************************************************************************* //
