/*--------------------------------*- C++ -*----------------------------------*\
| =========                 |                                                 |
| \\      /  F ield         | OpenFOAM: The Open Source CFD Toolbox           |
|  \\    /   O peration     | Version:  2406                                  |
|   \\  /    A nd           | Website:  www.openfoam.com                      |
|    \\/     M anipulation  |                                                 |
\*---------------------------------------------------------------------------*/
FoamFile
{
    version     2.0;
    format      binary;
    arch        "LSB;label=32;scalar=64";
    class       polyBoundaryMesh;
    location    "constant/polyMesh";
    object      boundary;
}
// * * * * * * * * * * * * * * * * * * * * * * * * * * * * * * * * * * * * * //

3
(
    left
    {
        type            wall;
        inGroups        1(wall);
        nFaces          1;
        startFace       23999;
    }
    right
    {
        type            wall;
        inGroups        1(wall);
        nFaces          1;
        startFace       24000;
    }
    empty
    {
        type            empty;
        inGroups        1(empty);
        nFaces          96000;
        startFace       24001;
    }
)

// ************************************************************************* //
