/*--------------------------------*- C++ -*----------------------------------*\
| =========                 |                                                 |
| \\      /  F ield         | OpenFOAM: The Open Source CFD Toolbox           |
|  \\    /   O peration     | Version:  2406                                  |
|   \\  /    A nd           | Website:  www.openfoam.com                      |
|    \\/     M anipulation  |                                                 |
\*---------------------------------------------------------------------------*/
FoamFile
{
    version     2.0;
    format      binary;
    arch        "LSB;label=32;scalar=64";
    class       polyBoundaryMesh;
    location    "constant/polyMesh";
    object      boundary;
}
// * * * * * * * * * * * * * * * * * * * * * * * * * * * * * * * * * * * * * //

4
(
    left
    {
        type            wall;
        inGroups        1(wall);
        nFaces          320;
        startFace       408640;
    }
    right
    {
        type            wall;
        inGroups        1(wall);
        nFaces          320;
        startFace       408960;
    }
    topAndBottom
    {
        type            wall;
        inGroups        1(wall);
        nFaces          1280;
        startFace       409280;
    }
    empty
    {
        type            empty;
        inGroups        1(empty);
        nFaces          409600;
        startFace       410560;
    }
)

// ************************************************************************* //
