/*--------------------------------*- C++ -*----------------------------------*\
| =========                 |                                                 |
| \\      /  F ield         | OpenFOAM: The Open Source CFD Toolbox           |
|  \\    /   O peration     | Version:  dev                                   |
|   \\  /    A nd           | Website:  www.openfoam.com                      |
|    \\/     M anipulation  |                                                 |
\*---------------------------------------------------------------------------*/
FoamFile
{
    version     2.0;
    format      binary;
    class       volScalarField;
    object      p;
}
// * * * * * * * * * * * * * * * * * * * * * * * * * * * * * * * * * * * * * //

dimensions      [1 -1 -2 0 0 0 0];

internalField   uniform 1;
// internalField   uniform 5000;

boundaryField
{
    inlet
    {
        type            fixedValue;
        value           uniform 1;
        // value uniform 1.1;
        // value uniform 81134.8794470031;
        // value uniform 5134.8794470031;
    }

    outlet
    {
        type            zeroGradient;
    }

    bottom
    {
        type            symmetryPlane;
    }

    top
    {
        // type            symmetryPlane;
        type            zeroGradient;
    }

    obstacle
    {
        type            zeroGradient;
    }

    defaultFaces
    {
        type            empty;
    }
}


// ************************************************************************* //
