/*--------------------------------*- C++ -*----------------------------------*\
| =========                 |                                                 |
| \\      /  F ield         | OpenFOAM: The Open Source CFD Toolbox           |
|  \\    /   O peration     | Version:  dev                                   |
|   \\  /    A nd           | Website:  www.openfoam.com                      |
|    \\/     M anipulation  |                                                 |
\*---------------------------------------------------------------------------*/
FoamFile
{
    version     2.0;
    format      binary;
    class       volScalarField;
    object      T;
}
// * * * * * * * * * * * * * * * * * * * * * * * * * * * * * * * * * * * * * //

dimensions      [0 0 0 1 0 0 0];

// internalField   uniform 0.9;
internalField   uniform 1.;
// internalField uniform 145.768159204;


boundaryField
{
    inlet
    {
        type            fixedValue;
        value           uniform 1;
        // value uniform 145.768159204;
    }

    outlet
    {
        type            zeroGradient;
    }

    bottom
    {
        type            symmetryPlane;
    }

    top
    {
        // type            symmetryPlane;
        type            zeroGradient;
    }

    obstacle
    {
        type            zeroGradient;
    }

    defaultFaces
    {
        type            empty;
    }
}


// ************************************************************************* //
