/*--------------------------------*- C++ -*----------------------------------*\
| =========                 |                                                 |
| \\      /  F ield         | OpenFOAM: The Open Source CFD Toolbox           |
|  \\    /   O peration     | Version:  dev                                   |
|   \\  /    A nd           | Website:  www.openfoam.com                      |
|    \\/     M anipulation  |                                                 |
\*---------------------------------------------------------------------------*/
FoamFile
{
    version     2.0;
    format      ascii;
    class       volVectorField;
    object      U;
}
// * * * * * * * * * * * * * * * * * * * * * * * * * * * * * * * * * * * * * //

dimensions      [0 1 -1 0 0 0 0];

// internalField   uniform (0 0 0);
// internalField   uniform (10.95445115 0 0);
internalField 	uniform (17.527121840165314 0 0);


boundaryField
{
    inlet
    {
        type            fixedValue;
        // value           uniform (10.95445115 0 0);
        value           uniform (17.527121840165314 0 0);
        // value           uniform (2 0 0);
        // value uniform (363.02 0 0);
    }

    outlet
    {
        type            zeroGradient;
    }

    bottom
    {
        type            symmetryPlane;
    }

    top
    {
        // type            symmetryPlane;
        type            zeroGradient;
    }

    obstacle
    {
        type            slip;
    }

    defaultFaces
    {
        type            empty;
    }
}


// ************************************************************************* //
