/*--------------------------------*- C++ -*----------------------------------*\
| =========                 |                                                 |
| \\      /  F ield         | OpenFOAM: The Open Source CFD Toolbox           |
|  \\    /   O peration     | Version:  dev                                   |
|   \\  /    A nd           | Website:  www.openfoam.com                      |
|    \\/     M anipulation  |                                                 |
\*---------------------------------------------------------------------------*/
FoamFile
{
    version     2.0;
    format      ascii;
    class       dictionary;
    object      controlDict;
}
// * * * * * * * * * * * * * * * * * * * * * * * * * * * * * * * * * * * * * //

application     detonationFoam;
// application     rhoCentralFoam;

startFrom       latestTime;

startTime       0;

stopAt          endTime;

// endTime         1e-3;
endTime         2;

deltaT          1e-4;

writeControl    adjustable;

// writeInterval   2e-1;
writeInterval   2e-2;
// writeInterval   2e-4;

purgeWrite      0;

writeFormat     binary;

writePrecision  6;

writeCompression off;

timeFormat      general;

timePrecision   6;

runTimeModifiable true;

adjustTimeStep  yes;

maxCo           0.1;

maxDeltaT       1;

// ************************************************************************* //
