/*--------------------------------*- C++ -*----------------------------------*\
| =========                 |                                                 |
| \\      /  F ield         | OpenFOAM: The Open Source CFD Toolbox           |
|  \\    /   O peration     | Version:  2406                                  |
|   \\  /    A nd           | Website:  www.openfoam.com                      |
|    \\/     M anipulation  |                                                 |
\*---------------------------------------------------------------------------*/
FoamFile
{
    version     2.0;
    format      binary;
    arch        "LSB;label=32;scalar=64";
    class       polyBoundaryMesh;
    location    "constant/polyMesh";
    object      boundary;
}
// * * * * * * * * * * * * * * * * * * * * * * * * * * * * * * * * * * * * * //

6
(
    inlet
    {
        type            patch;
        nFaces          800;
        startFace       1758100;
    }
    outlet
    {
        type            patch;
        nFaces          800;
        startFace       1758900;
    }
    bottom
    {
        type            symmetryPlane;
        inGroups        1(symmetryPlane);
        nFaces          100;
        startFace       1759700;
    }
    top
    {
        type            patch;
        nFaces          1100;
        startFace       1759800;
    }
    obstacle
    {
        type            patch;
        nFaces          1000;
        startFace       1760900;
    }
    defaultFaces
    {
        type            empty;
        inGroups        1(empty);
        nFaces          1760000;
        startFace       1761900;
    }
)

// ************************************************************************* //
